[TITLE]
;;Project Title/Notes

[OPTIONS]
;;Option             Value
FLOW_UNITS           CMS
INFILTRATION         HORTON
FLOW_ROUTING         DYNWAVE
LINK_OFFSETS         ELEVATION
MIN_SLOPE            0
ALLOW_PONDING        YES
SKIP_STEADY_STATE    NO

START_DATE           07/31/2023
START_TIME           00:00:00
REPORT_START_DATE    07/31/2023
REPORT_START_TIME    00:00:00
END_DATE             08/01/2023
END_TIME             23:00:00
SWEEP_START          01/01
SWEEP_END            12/31
DRY_DAYS             0
REPORT_STEP          01:00:00
WET_STEP             00:01:00
DRY_STEP             00:01:00
ROUTING_STEP         0:00:05 

INERTIAL_DAMPING     PARTIAL
NORMAL_FLOW_LIMITED  BOTH
FORCE_MAIN_EQUATION  H-W
VARIABLE_STEP        0.75
LENGTHENING_STEP     0
MIN_SURFAREA         1.14
MAX_TRIALS           8
HEAD_TOLERANCE       0.0015
SYS_FLOW_TOL         5
LAT_FLOW_TOL         5
MINIMUM_STEP         0.5
THREADS              1

[EVAPORATION]
;;Data Source    Parameters
;;-------------- ----------------
CONSTANT         0.0
DRY_ONLY         NO

[RAINGAGES]
;;Name           Format    Interval SCF      Source    
;;-------------- --------- ------ ------ ----------
YLJ1             VOLUME 0:01     1.0      TIMESERIES rainfall_3      

[SUBCATCHMENTS]
;;Name           Rain Gage        Outlet           Area     %Imperv  Width    %Slope   CurbLen  SnowPack        
;;-------------- ---------------- ---------------- -------- -------- -------- -------- -------- ----------------
sub1             YLJ1             Y030712          0.203225002 90       48.1977005 3.524729967 0                        
sub2             YLJ1             Y035036          0.140375003 90       41.56729889 0.991428971 0                        
sub3             YLJ1             Y030798          0.112954997 90       38.10639954 1.24691999 0                        
sub4             YLJ1             Y031419          0.113619998 90       38.19599915 1.381180048 0                        
sub5             YLJ1             Y033913          0.131897002 90       40.54430008 0.856770992 0                        
sub6             YLJ1             Y031418          0.121439002 90       39.22639847 0.835807979 0                        
sub7             YLJ1             Y036861          0.144995004 90       42.10919952 1.290609956 0                        
sub8             YLJ1             Y036872          0.201929003 90       48.07450104 2.224289894 0                        
sub9             YLJ1             Y032607          0.105341002 90       37.05739975 1.523069978 0                        
sub10            YLJ1             Y036884          0.178039998 90       45.7132988 1.028970003 0                        
sub11            YLJ1             Y036858          0.233731002 90       50.97090149 1.528419971 0                        
sub12            YLJ1             Y036865          0.237642005 90       51.31029892 1.540989995 0                        
sub13            YLJ1             Y036869          0.242953002 90       51.76599884 1.37688005 0                        
sub14            YLJ1             Y031610          0.155015007 90       43.24990082 1.857640028 0                        
sub15            YLJ1             Y029961          0.165792003 90       44.42839813 1.878069997 0                        
sub16            YLJ1             Y029887          0.226368994 90       50.32249832 1.54234004 0                        
sub17            YLJ1             Y031827          0.167250007 90       44.58430099 0.738888025 0                        
sub18            YLJ1             Y037061          0.128968999 90       40.18180084 1.560639977 0                        
sub19            YLJ1             Y032747          0.069580398 90       31.39279938 0.856197 0                        
sub20            YLJ1             Y033578          0.129269004 90       40.21920013 1.916869998 0                        
sub21            YLJ1             Y033338          0.290654987 90       55.61429977 1.726109982 0                        
sub22            YLJ1             Y029963          0.373427004 90       61.47769928 1.282330036 0                        
sub23            YLJ1             Y031614          0.141274005 90       41.67350006 0.857358992 0                        
sub24            YLJ1             YF_00530         0.452466995 90       66.38500214 0.917979002 0                        
sub25            YLJ1             Y033721          0.118331 90       38.82170105 1.342679977 0                        
sub26            YLJ1             Y029640          0.0155985 90       17.26110077 2.115089893 0                        
sub27            YLJ1             Y030991          0.115780003 90       38.48479843 1.971660018 0                        
sub28            YLJ1             Y031021          0.104900002 90       36.99520111 0.83633101 0                        
sub29            YLJ1             Y032357          0.161936 90       44.0121994 1.666839957 0                        
sub30            YLJ1             Y033333          0.342193007 90       59.3667984 1.863919973 0                        
sub31            YLJ1             Y029904          0.167438 90       44.60430145 0.968635023 0                        
sub32            YLJ1             Y032315          0.118513003 90       38.84560013 1.484109998 0                        
sub33            YLJ1             Y034559          0.415497005 90       64.15969849 1.396469951 0                        
sub34            YLJ1             Y031537          0.164351001 90       44.27360153 0.598236978 0                        
sub35            YLJ1             Y031535          0.0820731 90       33.53639984 1.48882997 0                        
sub36            YLJ1             Y031142          0.269044012 90       53.9219017 1.200979948 0                        
sub37            YLJ1             Y030541          0.102784999 90       36.69499969 1.189030051 0                        
sub38            YLJ1             Y030971          0.175070003 90       45.40670013 1.218330026 0                        
sub39            YLJ1             Y037072          0.233120993 90       50.91759872 1.370120049 0                        
sub40            YLJ1             Y029947          0.244845003 90       51.92679977 2.371020079 0                        
sub41            YLJ1             Y034314          0.249099001 90       52.28590012 2.01928997 0                        
sub42            YLJ1             Y037071          0.241008997 90       51.59989929 1.149970055 0                        
sub43            YLJ1             Y033131          0.282896012 90       55.0155983 0.686680973 0                        
sub44            YLJ1             Y031581          0.0570748 90       29.00099945 1.342020035 0                        
sub45            YLJ1             Y033275          0.041335899 90       25.4897995 2.271140099 0                        
sub46            YLJ1             Y032273          0.168669999 90       44.73529816 0.97547102 0                        
sub47            YLJ1             Y033153          0.132617995 90       40.63280106 1.161430001 0                        
sub48            YLJ1             Y033743          0.215074003 90       49.30270004 2.074850082 0                        
sub49            YLJ1             Y031421          0.079154 90       33.05400085 2.198309898 0                        
sub50            YLJ1             Y035678          0.124590002 90       39.63040161 1.221349955 0                        
sub51            YLJ1             Y029950          0.147628993 88.48179626 42.41350174 1.076079965 0                        
sub52            YLJ1             Y029657          0.103752002 89.85510254 36.83269882 1.538840055 0                        
sub53            YLJ1             Y031829          0.278313011 90       54.65739822 1.373219967 0                        
sub54            YLJ1             Y030969          0.116042003 90       38.51959991 2.288710117 0                        
sub55            YLJ1             Y035691          0.0248698 90       20.80200005 2.420949936 0                        
sub56            YLJ1             Y035152          0.321527988 90       57.90589905 2.36225009 0                        
sub57            YLJ1             Y034774          0.152595997 90       42.97859955 2.71517992 0                        
sub58            YLJ1             Y033936          0.202978998 90       48.17440033 1.416689992 0                        
sub59            YLJ1             Y029653          0.136722997 90       41.13130188 1.985640049 0                        
sub60            YLJ1             Y036038          0.052976601 90       28.14940071 1.688850045 0                        
sub61            YLJ1             Y034972          0.166618004 90       44.51679993 1.741899967 0                        
sub62            YLJ1             Y033682          0.0384803 90       24.77029991 1.605139971 0                        
sub63            YLJ1             Y033133          0.0203932 90       19.21450043 1.342880011 0                        
sub64            YLJ1             Y032938          0.116048001 90       38.520401 1.963310003 0                        
sub65            YLJ1             Y032277          0.097223803 90       35.88759995 2.329699993 0                        
sub66            YLJ1             Y031892          0.029065199 90       22.14039993 2.633399963 0                        
sub67            YLJ1             Y031393          0.048242498 90       27.11490059 1.927469969 0                        
sub68            YLJ1             Y030711          0.031130901 90       22.75690079 2.082590103 0                        
sub69            YLJ1             Y029946          0.050591301 90       27.63540077 1.630710006 0                        
sub70            YLJ1             Y029650          0.107197002 90       37.31719971 3.041460037 0                        
sub71            YLJ1             Y036042          0.080312803 90       33.24679947 1.301470041 0                        
sub72            YLJ1             Y035146          0.154328004 90       43.17309952 0.491113991 0                        
sub73            YLJ1             Y032741          0.189768001 90       46.89479828 1.428640008 0                        
sub74            YLJ1             Y031737          0.088197999 90       34.51589966 1.596779943 0                        
sub75            YLJ1             Y030796          0.147516996 90       42.40060043 1.469190001 0                        
sub76            YLJ1             Y030548          0.073841996 90       32.14820099 1.591310024 0                        
sub77            YLJ1             Y037166          0.139302 85.15779877 41.43989944 1.528110027 0                        
sub78            YLJ1             Y033204          0.081564903 90       33.4530983 1.095460057 0                        
sub79            YLJ1             Y032312          0.142021 90       41.76150131 1.737239957 0                        
sub80            YLJ1             Y031141          0.132942006 90       40.67250061 1.466439962 0                        
sub81            YLJ1             Y029949          0.412252009 90       63.95880127 1.240260005 0                        
sub82            YLJ1             Y034572          0.058067001 90       29.20159912 1.269430041 0                        
sub83            YLJ1             Y032731          0.229763001 81.47429657 50.6230011 1.321769953 0                        
sub84            YLJ1             Y031830          0.086306296 90       34.21780014 1.884410024 0                        
sub85            YLJ1             Y031121          0.114592999 90       38.32649994 2.013060093 0                        
sub86            YLJ1             Y035038          0.105926998 90       37.13970184 1.787549973 0                        
sub87            YLJ1             Y034560          0.186254993 90       46.54560089 2.087539911 0                        
sub88            YLJ1             Y034312          0.154841006 90       43.23049927 1.719190001 0                        
sub89            YLJ1             Y033773          0.227208003 90       50.39699936 1.874150038 0                        
sub90            YLJ1             Y032701          0.151495993 90       42.85449982 1.641759992 0                        
sub91            YLJ1             Y030585          0.075079501 90       32.36259842 1.401000023 0                        
sub92            YLJ1             Y033937          0.181318998 90       46.0481987 1.532969952 0                        
sub93            YLJ1             Y033526          0.085232899 90       34.04700089 1.037539959 0                        
sub94            YLJ1             Y032611          0.061983 90       29.97400093 0.611703992 0                        
sub95            YLJ1             Y031583          0.232975006 89.67810059 50.9048996 1.44137001 0                        
sub96            YLJ1             Y037070          0.0878001 90       34.45349884 1.078950047 0                        
sub97            YLJ1             Y037069          0.056338899 90       28.85090065 0.89903003 0                        
sub98            YLJ1             Y034233          0.121157996 90       39.19010162 1.483090043 0                        
sub99            YLJ1             Y031149          0.104140997 90       36.88790131 1.33604002 0                        
sub100           YLJ1             Y037073          0.080690801 90       33.30929947 0.73634398 0                        
sub101           YLJ1             Y037066          0.041465402 90       25.52169991 0.629456997 0                        
sub102           YLJ1             Y032937          0.131591007 90       40.50659943 1.147830009 0                        
sub103           YLJ1             Y035646          0.137841001 90       41.26549911 1.008579969 0                        
sub104           YLJ1             Y035148          0.060987901 90       29.78059959 0.48971799 0                        
sub105           YLJ1             Y034573          0.059684802 90       29.52440071 1.447710037 0                        
sub106           YLJ1             Y034024          0.221637994 90       49.89920044 0.622385025 0                        
sub107           YLJ1             Y034019          0.140039995 90       41.52750015 2.403219938 0                        
sub108           YLJ1             Y033683          0.187530994 90       46.67290115 2.151269913 0                        
sub109           YLJ1             Y032275          0.138356 90       41.32709885 1.451869965 0                        
sub110           YLJ1             Y036767          0.068805397 90       31.25250053 1.983620048 0                        
sub111           YLJ1             Y036766          0.031194299 90       22.77540016 3.318639994 0                        
sub112           YLJ1             Y035147          0.042871099 90       25.86429977 1.351340055 0                        
sub113           YLJ1             Y035031          0.0181663 90       18.34600067 1.394510031 0                        
sub114           YLJ1             Y033938          0.0187787 90       18.5909996 1.441609979 0                        
sub115           YLJ1             Y033528          0.029113499 90       22.15509987 1.079869986 0                        
sub116           YLJ1             Y033129          0.0484282 90       27.15660095 1.19422996 0                        
sub117           YLJ1             Y032936          0.040801398 90       25.35740089 1.454439998 0                        
sub118           YLJ1             Y032314          0.057064701 90       28.99900055 1.534080029 0                        
sub119           YLJ1             Y031236          0.021457 90       19.60930061 1.75090003 0                        
sub120           YLJ1             Y030542          0.069608301 90       31.39780045 0.873052001 0                        
sub121           YLJ1             Y029885          0.133566007 90       40.74869919 1.772300005 0                        
sub122           YLJ1             Y029652          0.065377198 90       30.62010002 2.623100042 0                        
sub123           YLJ1             Y036765          0.201941997 90       48.07580185 1.704900026 0                        
sub124           YLJ1             Y036764          0.00612093 90       11.87310028 0.971129 0                        
sub125           YLJ1             Y036040          0.046906501 90       26.81200027 0.906014025 0                        
sub126           YLJ1             Y036039          0.020605501 90       19.29430008 0.450309008 0                        
sub127           YLJ1             Y035645          0.00614352 90       11.8906002 0.676325023 0                        
sub128           YLJ1             Y034022          0.00586226 90       11.66969967 0.511726975 0                        
sub129           YLJ1             Y032136          0.165802002 90       44.42950058 0.697887003 0                        
sub130           YLJ1             Y031582          0.0193731 90       18.82410049 1.191419959 0                        
sub131           YLJ1             Y031417          0.051830601 90       27.9041996 1.274989963 0                        
sub132           YLJ1             Y030797          0.054026101 90       28.37109947 0.803717971 0                        
sub133           YLJ1             Y029945          0.00436438 90       10.37059975 0.491732001 0                        
sub134           YLJ1             YF_01035         0.108327001 90       37.47399902 1.24011004 0                        
sub135           YLJ1             Y037249          0.051242799 90       27.7772007 1.581699967 0                        
sub136           YLJ1             Y033912          0.0490591 90       27.29750061 0.877740979 0                        
sub137           YLJ1             Y033202          0.0400296 90       25.16449928 1.151110053 0                        
sub138           YLJ1             Y032760          0.020544 90       19.27120018 1.354740024 0                        
sub139           YLJ1             Y031395          0.0563347 90       28.85000038 1.481680036 0                        
sub140           YLJ1             Y030800          0.0306384 90       22.61219978 1.551059961 0                        
sub141           YLJ1             Y030583          0.090438001 90       34.86389923 1.527160048 0                        
sub142           YLJ1             Y030134          0.137968004 90       41.28070068 1.609779954 0                        
sub143           YLJ1             Y029905          0.104635999 90       36.95800018 1.605620027 0                        
sub144           YLJ1             Y034571          0.155662 90       43.3219986 0.545415998 0                        
sub145           YLJ1             Y031584          0.266746998 90       53.73720169 1.315279961 0                        
sub146           YLJ1             Y031069          0.079677202 90       33.1413002 0.624552011 0                        
sub147           YLJ1             Y030801          0.0565161 90       28.88710022 1.195350051 0                        
sub148           YLJ1             Y034775          0.061707899 90       29.92070007 2.047339916 0                        
sub149           YLJ1             Y033431          0.032532401 90       23.16119957 0.921759009 0                        
sub150           YLJ1             Y031544          0.034579098 90       23.73349953 1.712170005 0                        
sub151           YLJ1             Y030527          0.099559799 90       36.23009872 2.063349962 0                        
sub152           YLJ1             Y030306          0.029724101 90       22.33979988 1.532439947 0                        
sub153           YLJ1             Y034023          0.034765098 90       23.78440094 1.318950057 0                        
sub154           YLJ1             Y031903          0.109584004 90       37.64730072 1.722929955 0                        
sub155           YLJ1             Y030713          0.065795898 90       30.69829941 0.882317007 0                        
sub156           YLJ1             Y030588          0.0815171 90       33.44530106 1.802919984 0                        
sub157           YLJ1             Y037068          0.038794 90       24.85090065 1.064939976 0                        
sub158           YLJ1             Y037067          0.068235703 90       31.14870071 1.337679982 0                        
sub159           YLJ1             Y037065          0.217164993 90       49.4939003 0.933287978 0                        
sub160           YLJ1             Y034437          0.110780999 90       37.81129837 1.173320055 0                        
sub161           YLJ1             Y032134          0.035397299 90       23.9564991 1.173779964 0                        
sub162           YLJ1             Y030582          0.0591047 90       29.40929985 0.934574008 0                        
sub163           YLJ1             Y035677          0.127819002 90       40.0381012 1.153380036 0                        
sub164           YLJ1             Y032719          0.158481002 90       43.63410187 1.75635004 0                        
sub165           YLJ1             Y037059          0.069379903 90       31.35659981 1.296329975 0                        
sub166           YLJ1             Y031152          0.173495993 90       45.24300003 1.483289957 0                        
sub167           YLJ1             Y032311          0.087796599 90       34.45299911 1.682540059 0                        
sub168           YLJ1             Y031999          0.080772899 90       33.32279968 0.980310977 0                        
sub169           YLJ1             Y030795          0.057836901 90       29.15530014 0.625750005 0                        
sub170           YLJ1             Y035039          0.065682203 90       30.67709923 1.136420012 0                        
sub171           YLJ1             Y034683          0.028475899 90       21.95969963 1.078609943 0                        
sub172           YLJ1             Y034256          0.121816002 90       39.27510071 1.402449965 0                        
sub173           YLJ1             Y033332          0.054514699 90       28.4734993 0.92722702 0                        
sub174           YLJ1             Y032276          0.154171005 90       43.1554985 1.672330022 0                        
sub175           YLJ1             Y031148          0.050870199 90       27.69619942 0.813938975 0                        
sub176           YLJ1             Y030587          0.055571198 90       28.69300079 0.756999016 0                        
sub177           YLJ1             Y030543          0.084164999 90       33.8757019 1.247570038 0                        
sub178           YLJ1             Y029942          0.085068002 90       34.02059937 1.443300009 0                        
sub179           YLJ1             Y037550          0.131005004 90       40.43439865 1.415689945 0                        
sub180           YLJ1             Y037549          0.177082002 90       45.61470032 1.102499962 0                        
sub181           YLJ1             Y034542          0.045127299 90       26.40040016 1.926069975 0                        
sub182           YLJ1             Y033777          0.0107219 90       14.85739994 2.222500086 0                        
sub183           YLJ1             Y033681          0.015196 90       17.0814991 1.981099963 0                        
sub184           YLJ1             Y033666          0.0279331 90       21.79129982 1.007969975 0                        
sub185           YLJ1             Y032313          0.0146596 90       16.83779907 0.859741986 0                        
sub186           YLJ1             Y031068          0.10599  90       37.14849854 0.769469976 0                        
sub187           YLJ1             Y034776          0.434605002 90       65.32409668 1.035730004 0                        
sub188           YLJ1             Y035552          0.113357998 90       38.16070175 0.974994004 0                        
sub189           YLJ1             Y033772          0.052374199 90       28.02090073 0.704213977 0                        
sub190           YLJ1             Y033523          0.286509991 89.34529877 55.29570007 2.09664011 0                        
sub191           YLJ1             Y032363          0.233078003 89.00509644 50.91389847 1.738209963 0                        
sub192           YLJ1             Y031893          0.107749 90       37.39390182 1.788050056 0                        
sub193           YLJ1             Y031420          0.071085401 90       31.66270065 1.137019992 0                        
sub194           YLJ1             Y030135          0.222225994 88.58039856 49.95209885 1.666180015 0                        
sub195           YLJ1             Y032374          0.122945003 90       39.42029953 1.642580032 0                        
sub196           YLJ1             Y032358          0.414292991 90       64.08529663 0.735186994 0                        
sub197           YLJ1             Y035073          0.028629599 90       22.00699997 0.698996007 0                        
sub198           YLJ1             Y034985          0.00256727 90       8.387339592 1.140849948 0                        
sub199           YLJ1             Y032839          0.107657 90       37.3810997 0.923629999 0                        
sub200           YLJ1             Y032375          0.104079001 90       36.8791008 1.282899976 0                        
sub201           YLJ1             Y031826          0.165226996 90       44.36780167 2.24725008 0                        
sub202           YLJ1             Y030124          0.0368593 90       24.34749985 1.569030046 0                        
sub203           YLJ1             Y032283          0.028911 90       22.09329987 0.489865005 0                        
sub204           YLJ1             Y034253          0.069990702 90       31.4666996 0.792850018 0                        
sub205           YLJ1             Y032829          0.048628099 90       27.20129967 1.223539948 0                        
sub206           YLJ1             Y030023          0.211981997 90       49.01789856 1.218209982 0                        
sub207           YLJ1             Y037064          0.0387135 90       24.8302002 0.371457994 0                        
sub208           YLJ1             Y036418          0.0330972 90       23.32130051 1.22645998 0                        
sub209           YLJ1             Y033768          0.050085701 90       27.52459908 0.733452022 0                        
sub210           YLJ1             Y033307          0.034153599 90       23.61619949 0.974141002 0                        
sub211           YLJ1             Y032897          0.121495999 90       39.23379898 0.698554993 0                        
sub212           YLJ1             Y032608          0.065839902 90       30.70660019 1.139750004 0                        
sub213           YLJ1             Y032285          0.056582499 90       28.90069962 1.252930045 0                        
sub214           YLJ1             Y032232          0.082288198 90       33.57149887 1.272269964 0                        
sub215           YLJ1             Y031898          0.089805603 90       34.76620102 1.214069963 0                        
sub216           YLJ1             Y031730          0.0285438 90       21.98060036 1.842200041 0                        
sub217           YLJ1             Y030640          0.037402399 90       24.49040031 2.449990034 0                        
sub218           YLJ1             Y030179          0.078857198 90       33.00439835 1.217859983 0                        
sub219           YLJ1             Y030099          0.120687999 90       39.12919998 2.37368989 0                        
sub220           YLJ1             Y030009          0.017153401 90       17.92980003 1.817980051 0                        
sub221           YLJ1             Y035711          0.031460501 90       22.85289955 1.919029951 0                        
sub222           YLJ1             Y034403          0.0406202 90       25.31229973 2.08107996 0                        
sub223           YLJ1             Y034363          0.194200993 90       47.33000183 1.195619941 0                        
sub224           YLJ1             Y033724          0.057512701 90       29.08979988 1.358270049 0                        
sub225           YLJ1             Y030601          0.206725001 90       48.52799988 0.928416014 0                        
sub226           YLJ1             Y034355          0.275572985 90       54.44150162 1.920660019 0                        
sub227           YLJ1             Y032230          0.083746903 90       33.80830002 1.029829979 0                        
sub228           YLJ1             Y030217          0.358532012 90       60.48490143 1.595919967 0                        
sub229           YLJ1             Y029959          0.148163006 90       42.47480011 1.01154995 0                        
sub230           YLJ1             Y036716          0.096487798 90       35.77870178 1.754430056 0                        
sub231           YLJ1             Y036715          0.086131603 90       34.19010162 1.042700052 0                        
sub232           YLJ1             Y032107          0.025966801 90       21.16419983 2.02651  0                        