[TITLE]
;;Project Title/Notes

[OPTIONS]
;;Option             Value
FLOW_UNITS           CMS
INFILTRATION         HORTON
FLOW_ROUTING         DYNWAVE
LINK_OFFSETS         ELEVATION
MIN_SLOPE            0
ALLOW_PONDING        NO
SKIP_STEADY_STATE    NO

START_DATE           07/29/2023
START_TIME           00:00:00
REPORT_START_DATE    07/29/2023
REPORT_START_TIME    01:00:00
END_DATE             08/01/2023
END_TIME             23:30:00
SWEEP_START          01/01
SWEEP_END            12/31
DRY_DAYS             0
REPORT_STEP          00:30:00
WET_STEP             00:05:00
DRY_STEP             01:00:00
ROUTING_STEP         0:00:30 
RULE_STEP            00:00:00

INERTIAL_DAMPING     PARTIAL
NORMAL_FLOW_LIMITED  BOTH
FORCE_MAIN_EQUATION  H-W
VARIABLE_STEP        0.75
LENGTHENING_STEP     0
MIN_SURFAREA         1.167
MAX_TRIALS           8
HEAD_TOLERANCE       0.0015
SYS_FLOW_TOL         5
LAT_FLOW_TOL         5
MINIMUM_STEP         0.5
THREADS              1

[EVAPORATION]
;;Data Source    Parameters
;;-------------- ----------------
CONSTANT         0.0
DRY_ONLY         NO

[RAINGAGES]
;;Name           Format    Interval SCF      Source    
;;-------------- --------- ------ ------ ----------
1                INTENSITY 0:30     1.0      TIMESERIES GPM_116.6500015-39.95000076
2                INTENSITY 0:30     1.0      TIMESERIES GPM_116.75-39.95000076
5                INTENSITY 0:30     1.0      TIMESERIES GPM_116.8499985-39.849998474121
4                INTENSITY 0:30     1.0      TIMESERIES GPM_116.75-39.84999847
3                INTENSITY 0:30     1.0      TIMESERIES GPM_116.6500015-39.84999847
6                INTENSITY 0:30     1.0      TIMESERIES GPM_116.75-39.75
7                INTENSITY 0:30     1.0      TIMESERIES GPM_116.8499985-39.75

[SUBCATCHMENTS]
;;Name           Rain Gage        Outlet           Area     %Imperv  Width    %Slope   CurbLen  SnowPack        
;;-------------- ---------------- ---------------- -------- -------- -------- -------- -------- ----------------
CB1              1                WYH6             1028.489 16.144   1461.219 0.595    0                        
CB2              1                WYH9             561.313  17.01    1146.878 2.114    0                        
CB3              3                WYH11            237.145  15.184   812.533  0.892    0                        
CB4              1                XZH3             800.225  10.397   1321.662 0.892    0                        
CB5              1                XZH4             437.622  12.873   1038.186 3.272    0                        
CB6              1                CB7              470.696  14.33    1068.887 0.47     0                        
CB7              1                ZBH8             230.686  2.253    803.607  1.643    0                        
CB8              3                XZH5             328.291  13.19    925.42   2.266    0                        
CB9              3                XZH6             364.844  45.016   965.336  1.347    0                        
CB10             3                YCJH3            182.368  39.952   731.5    2.945    0                        
CB11             4                CB13             382.234  31.198   983.483  1.052    0                        
CB12             4                CB13             305.04   28.046   898.625  0.21     0                        
CB13             4                YCJH4            630.34   16.195   1201.339 1.517    0                        
CB14             1                ZBH7             125.028  3.046    628.983  2.398    0                        
CB15             1                CB14             176.724  16.74    722.36   1.133    0                        
CB16             1                XSG4             70.759   3.364    500.896  0.631    0                        
CB17             1                CB15             45.648   41.488   420.342  0.758    0                        
CB18             1                CB7              154.96   46.581   685.368  1.052    0                        
CB19             1                CB16             246.283  29.112   824.915  1.411    0                        
CB20             1                XSG3             196.259  32.438   753.298  0.841    0                        
CB21             1                XSG2             95.858   7.948    565.572  2.145    0                        
CB22             2                ZBH3             184.971  2.01     735.66   1.996    0                        
CB23             2                ZBH4             485.035  10.7     1081.794 2.352    0                        
CB24             2                XYG1             261.305  3.616    844.684  2.323    0                        
CB25             2                ZBH5             394.157  27.626   995.641  1.985    0                        
CB26             2                ZBH1             240.075  13.265   816.535  0.841    0                        
CB27             2                CB33             141.727  32.524   661.328  1.411    0                        
CB28             2                ZYG1             52.176   0.471    443.429  2.677    0                        
CB29             2                ZYG2             104.346  2.378    585.094  1.28     0                        
CB30             2                CB28             23.958   3.589    324.798  3.722    0                        
CB31             2                ZJG3             89.281   19.97    549.716  2.145    0                        
CB32             2                XYG3             215.589  14.41    782.143  0.665    0                        
CB33             2                ZYG7             186.249  42.409   737.688  0.595    0                        
CB34             2                XYG3             54.278   12.134   450.488  1.133    0                        
CB35             2                ZJG5             174.657  19.968   718.969  2.922    0                        
CB36             2                ZJG10            670.91   5.38     1231.69  2.922    0                        
CB37             2                ZJG13            502.573  31.831   1097.274 3.57     0                        
CB38             4                ZJG17            450.159  30.257   1049.982 0.758    0                        
CB39             4                ZJG20            366.352  40.331   966.93   0.941    0                        
CB40             4                ZJG22            327.76   34.659   924.821  1.347    0                        
CB41             4                CSG2             95.629   18.632   565.03   0.297    0                        
CB42             4                CSG3             215.393  17.503   781.859  0.631    0                        
CB43             5                CB44             180.758  21.608   728.91   2.166    0                        
CB44             5                CB50             183.828  21.491   733.838  1.517    0                        
CB45             5                CB43             125.923  30.018   630.779  1.696    0                        
CB46             2                ZJG1             71.737   0.439    503.656  1.797    0                        
CB47             2                CBH2             156.254  1.71     687.651  2.166    0                        
CB48             2                CBH4             158.381  0.553    691.38   2.533    0                        
CB49             5                CBH6             266.713  13.636   851.635  2.735    0                        
CB50             5                YWG1             427.903  7.269    1028.901 1.939    0                        
CB51             3                THH9             25.91    13.248   335.134  0.421    0                        
CB52             3                THH10            22.473   10.385   316.593  1.81     0                        
HX1              3                WYH10            203.053  6.775    763.624  1.073    0                        
HX2              3                HX3              173.647  52.962   717.303  4.084    0                        
HX3              3                WYH11            42.864   59.92    409.895  0.941    0                        
HX4              3                HX5              162.346  19.199   698.252  0.21     0                        
HX5              3                THH4             123.742  61.208   626.386  0.867    0                        
HX6              3                THH6             102.898  72.987   581.832  3.991    0                        
HX7              3                WYH13            69.338   43.874   496.849  1.052    0                        
HX8              3                HX9              100.703  55.226   576.836  0.867    0                        
HX9              3                THH7             92.032   64.863   556.431  1.487    0                        
HX10             3                THH8             106.193  33.413   589.215  2.807    0                        
HX11             1                THH9             28.627   15.904   348.775  2.266    0                        
HX12             3                HX13             51.944   37.948   442.638  2.398    0                        
HX13             3                HX15             138.913  35.445   656.044  0.665    0                        
HX14             3                HX19             110.868  71.193   599.456  3.293    0                        
HX15             3                NDG1             162.118  27.351   697.86   1.696    0                        
HX16             3                NDG6             118.384  19.598   615.392  1.985    0                        
HX17             3                NDG8             149.022  9.467    674.74   1.939    0                        
HX18             3                NDG9             51.574   7.227    441.375  1.759    0                        
HX19             3                HX22             140.177  64.203   658.424  2.453    0                        
HX20             3                HX23             214.308  55.038   780.281  2.072    0                        
HX21             3                HX20             118.205  68.942   615.021  1.052    0                        
HX22             3                HX24             188.12   39.175   740.643  1.052    0                        
HX23             3                HX29             137.961  62.071   654.242  2.114    0                        
HX24             3                HX28             175.893  30.744   720.999  1.073    0                        
HX25             3                HX26             177.616  87.238   723.817  1.531    0                        
HX26             3                YDH1             342.322  62.156   941.042  0.867    0                        
HX27             3                HX29             395.472  37.71    996.969  2.275    0                        
HX28             3                XTHH3            92.986   6.148    558.732  0.595    0                        
HX29             3                XTHH7            712.1    4.483    1261.397 1.996    0                        
HX30             4                YDH7             416.227  31.58    1017.578 1.347    0                        
HX31             4                YDH8             37.479   68.855   388.465  1.905    0                        
HX32             4                HX33             321.468  28.883   917.678  0.421    0                        
HX33             4                LH38             467.486  34.045   1065.965 2.677    0                        
HX34             3                XTHH10           101.707  47.249   579.13   1.28     0                        
HX35             1                YDH12            239.773  37.464   816.123  1.347    0                        
HX36             3                LSH2             146.658  38.34    670.436  1.33     0                        
HX37             3                LSH5             133.339  26.156   645.385  1.893    0                        
HX38             3                LSH5             89.291   27.886   549.741  1.33     0                        
HX39             4                LSH6             721.848  28.186   1268.276 1.531    0                        
HX40             3                LSH8             621.308  33.815   1194.423 0.595    0                        
HX41             6                LSH12            317.615  9.305    913.263  0.758    0                        
HX42             4                HX39             208.314  51.331   771.477  0.595    0                        
HX43             3                XTHH13           53.027   35.076   446.309  1.643    0                        
HX44             3                HX25             298.341  79.443   890.678  2.196    0                        
HX45             4                HX38             77.852   35.163   520.409  0.421    0                        
LH1              3                BYH2             227.768  27.425   799.526  4.228    0                        
LH2              3                BYH3             270.95   58.413   857.02   3.127    0                        
LH3              4                BYH5             224.339  41.815   794.69   0.892    0                        
LH4              4                LH3              105.662  35.486   588.035  2.922    0                        
LH5              4                LH6              287.201  38.827   877.222  0.892    0                        
LH6              4                FZG4             352.805  16.793   952.466  1.052    0                        
LH7              4                BYH7             355.094  16.624   954.933  3.326    0                        
LH8              4                JYG2             205.859  5.222    767.827  1.33     0                        
LH9              4                JYG5             338.008  25.387   936.281  2.533    0                        
LH10             4                QJCG5            260.201  23.764   843.255  2.236    0                        
LH11             4                YWG2             746.034  23.284   1285.106 3.501    0                        
LH12             4                JYG6             219.106  10.803   787.221  0.595    0                        
LH13             4                KYG5             570.559  19.829   1154.398 3.293    0                        
LH14             1                WDG4             413.18   23.498   1014.591 0.841    0                        
LH15             6                KXG1             285.157  20.219   874.72   1.473    0                        
LH16             6                KXG2             481.148  8.627    1078.319 0.47     0                        
LH17             5                XXG2             443.778  11.889   1044.003 3.482    0                        
LH18             6                DXG2             551.381  16.856   1138.718 1.517    0                        
LH19             5                DXG1             464.613  26.158   1063.34  0.421    0                        
LH20             5                WXG6             314.723  0.608    909.928  3.424    0                        
LH21             6                XLG2             345.313  17.777   944.324  3.392    0                        
LH22             6                XLG3             578.791  2.669    1161.032 1.133    0                        
LH23             6                RXG3             178.066  32.062   724.549  0.892    0                        
LH24             6                DCG2             843.155  17.583   1349.579 3.366    0                        
LH25             5                KTG4             336.74   13.311   934.875  0.867    0                        
LH26             7                XWG5             521.753  12.959   1113.837 0.841    0                        
LH27             7                WJG5             521.323  27.039   1113.469 0.47     0                        
LH28             7                JWG1             254.177  14.24    835.391  2.145    0                        
LH29             7                XHLBG8           485.588  8.38     1082.288 1.602    0                        
LH30             7                YLG3             560.818  18.164   1146.474 1.785    0                        
LH31             7                XHLBG5           315.592  17.908   910.932  1.735    0                        
LH32             7                WJG8             255.31   11.874   836.879  0.631    0                        
LH33             7                HXG5             710.177  19.578   1260.034 0.421    0                        
LH34             7                HXG6             538.633  11.595   1128.113 1.785    0                        
LH35             7                HXG7             392.356  13.242   993.82   2.636    0                        
LH36             7                YNG10            422.182  13.452   1023.377 0.47     0                        
LH37             7                BYH27            345.273  14.611   944.279  1.28     0                        
LH38             4                BYH28            306.859  2.672    900.764  1.19     0                        
LH39             1                BYH16            439.135  3.348    1039.62  0.421    0                        
LH40             6                LSH13            231.337  8.752    804.513  3.012    0                        
LH41             6                XLG3             240.412  17.846   816.992  2.568    0                        
LH42             7                BYH23            353.663  1.8      953.392  1.073    0                        
LH43             7                XHLBG8           370.975  1.281    971.792  2.266    0                        
LH44             5                CBH15            333.853  0.416    931.66   5.363    0                        
LH45             7                SYG6             416.601  7.248    1017.943 2.266    0                        
LH46             7                CBH20            32.918   0        368.816  2.462    0                        
LH47             7                HXG2             516.942  12.999   1109.717 1.411    0                        
LH48             5                CBH17            70.495   0.36     500.147  6.231    0                        

[SUBAREAS]
;;Subcatchment   N-Imperv   N-Perv     S-Imperv   S-Perv     PctZero    RouteTo    PctRouted 
;;-------------- ---------- ---------- ---------- ---------- ---------- ---------- ----------
CB1              0.01       0.05       1.7        2.5        25         OUTLET    
CB2              0.01       0.05       1.7        2.5        25         OUTLET    
CB3              0.01       0.05       1.7        2.5        25         OUTLET    
CB4              0.01       0.05       1.7        2.5        25         OUTLET    
CB5              0.01       0.05       1.7        2.5        25         OUTLET    
CB6              0.01       0.05       1.7        2.5        25         OUTLET    
CB7              0.01       0.05       1.7        2.5        25         OUTLET    
CB8              0.01       0.05       1.7        2.5        25         OUTLET    
CB9              0.01       0.05       1.7        2.5        25         OUTLET    
CB10             0.01       0.05       1.7        2.5        25         OUTLET    
CB11             0.01       0.05       1.7        2.5        25         OUTLET    
CB12             0.01       0.05       1.7        2.5        25         OUTLET    
CB13             0.01       0.05       1.7        2.5        25         OUTLET    
CB14             0.01       0.05       1.7        2.5        25         OUTLET    
CB15             0.01       0.05       1.7        2.5        25         OUTLET    
CB16             0.01       0.05       1.7        2.5        25         OUTLET    
CB17             0.01       0.05       1.7        2.5        25         OUTLET    
CB18             0.01       0.05       1.7        2.5        25         OUTLET    
CB19             0.01       0.05       1.7        2.5        25         OUTLET    
CB20             0.01       0.05       1.7        2.5        25         OUTLET    
CB21             0.01       0.05       1.7        2.5        25         OUTLET    
CB22             0.01       0.05       1.7        2.5        25         OUTLET    
CB23             0.01       0.05       1.7        2.5        25         OUTLET    
CB24             0.01       0.05       1.7        2.5        25         OUTLET    
CB25             0.01       0.05       1.7        2.5        25         OUTLET    
CB26             0.01       0.05       1.7        2.5        25         OUTLET    
CB27             0.01       0.05       1.7        2.5        25         OUTLET    
CB28             0.01       0.05       1.7        2.5        25         OUTLET    
CB29             0.01       0.05       1.7        2.5        25         OUTLET    
CB30             0.01       0.05       1.7        2.5        25         OUTLET    
CB31             0.01       0.05       1.7        2.5        25         OUTLET    
CB32             0.01       0.05       1.7        2.5        25         OUTLET    
CB33             0.01       0.05       1.7        2.5        25         OUTLET    
CB34             0.01       0.05       1.7        2.5        25         OUTLET    
CB35             0.01       0.05       1.7        2.5        25         OUTLET    
CB36             0.01       0.05       1.7        2.5        25         OUTLET    
CB37             0.01       0.05       1.7        2.5        25         OUTLET    
CB38             0.01       0.05       1.7        2.5        25         OUTLET    
CB39             0.01       0.05       1.7        2.5        25         OUTLET    
CB40             0.01       0.05       1.7        2.5        25         OUTLET    
CB41             0.01       0.05       1.7        2.5        25         OUTLET    
CB42             0.01       0.05       1.7        2.5        25         OUTLET    
CB43             0.01       0.05       1.7        2.5        25         OUTLET    
CB44             0.01       0.05       1.7        2.5        25         OUTLET    
CB45             0.01       0.05       1.7        2.5        25         OUTLET    
CB46             0.01       0.05       1.7        2.5        25         OUTLET    
CB47             0.01       0.05       1.7        2.5        25         OUTLET    
CB48             0.01       0.05       1.7        2.5        25         OUTLET    
CB49             0.01       0.05       1.7        2.5        25         OUTLET    
CB50             0.01       0.05       1.7        2.5        25         OUTLET    
CB51             0.01       0.05       1.7        2.5        25         OUTLET    
CB52             0.01       0.05       1.7        2.5        25         OUTLET    
HX1              0.01       0.05       1.7        2.5        25         OUTLET    
HX2              0.01       0.05       1.7        2.5        25         OUTLET    
HX3              0.01       0.05       1.7        2.5        25         OUTLET    
HX4              0.01       0.05       1.7        2.5        25         OUTLET    
HX5              0.01       0.05       1.7        2.5        25         OUTLET    
HX6              0.01       0.05       1.7        2.5        25         OUTLET    
HX7              0.01       0.05       1.7        2.5        25         OUTLET    
HX8              0.01       0.05       1.7        2.5        25         OUTLET    
HX9              0.01       0.05       1.7        2.5        25         OUTLET    
HX10             0.01       0.05       1.7        2.5        25         OUTLET    
HX11             0.01       0.05       1.7        2.5        25         OUTLET    
HX12             0.01       0.05       1.7        2.5        25         OUTLET    
HX13             0.01       0.05       1.7        2.5        25         OUTLET    
HX14             0.01       0.05       1.7        2.5        25         OUTLET    
HX15             0.01       0.05       1.7        2.5        25         OUTLET    
HX16             0.01       0.05       1.7        2.5        25         OUTLET    
HX17             0.01       0.05       1.7        2.5        25         OUTLET    
HX18             0.01       0.05       1.7        2.5        25         OUTLET    
HX19             0.01       0.05       1.7        2.5        25         OUTLET    
HX20             0.01       0.05       1.7        2.5        25         OUTLET    
HX21             0.01       0.05       1.7        2.5        25         OUTLET    
HX22             0.01       0.05       1.7        2.5        25         OUTLET    
HX23             0.01       0.05       1.7        2.5        25         OUTLET    
HX24             0.01       0.05       1.7        2.5        25         OUTLET    
HX25             0.01       0.05       1.7        2.5        25         OUTLET    
HX26             0.01       0.05       1.7        2.5        25         OUTLET    
HX27             0.01       0.05       1.7        2.5        25         OUTLET    
HX28             0.01       0.05       1.7        2.5        25         OUTLET    
HX29             0.01       0.05       1.7        2.5        25         OUTLET    
HX30             0.01       0.05       1.7        2.5        25         OUTLET    
HX31             0.01       0.05       1.7        2.5        25         OUTLET    
HX32             0.01       0.05       1.7        2.5        25         OUTLET    
HX33             0.01       0.05       1.7        2.5        25         OUTLET    
HX34             0.01       0.05       1.7        2.5        25         OUTLET    
HX35             0.01       0.05       1.7        2.5        25         OUTLET    
HX36             0.01       0.05       1.7        2.5        25         OUTLET    
HX37             0.01       0.05       1.7        2.5        25         OUTLET    
HX38             0.01       0.05       1.7        2.5        25         OUTLET    
HX39             0.01       0.05       1.7        2.5        25         OUTLET    
HX40             0.01       0.05       1.7        2.5        25         OUTLET    
HX41             0.01       0.05       1.7        2.5        25         OUTLET    
HX42             0.01       0.05       1.7        2.5        25         OUTLET    
HX43             0.01       0.05       1.7        2.5        25         OUTLET    
HX44             0.01       0.05       1.7        2.5        25         OUTLET    
HX45             0.01       0.05       1.7        2.5        25         OUTLET    
LH1              0.01       0.05       1.7        2.5        25         OUTLET    
LH2              0.01       0.05       1.7        2.5        25         OUTLET    
LH3              0.01       0.05       1.7        2.5        25         OUTLET    
LH4              0.01       0.05       1.7        2.5        25         OUTLET    
LH5              0.01       0.05       1.7        2.5        25         OUTLET    
LH6              0.01       0.05       1.7        2.5        25         OUTLET    
LH7              0.01       0.05       1.7        2.5        25         OUTLET    
LH8              0.01       0.05       1.7        2.5        25         OUTLET    
LH9              0.01       0.05       1.7        2.5        25         OUTLET    
LH10             0.01       0.05       1.7        2.5        25         OUTLET    
LH11             0.01       0.05       1.7        2.5        25         OUTLET    
LH12             0.01       0.05       1.7        2.5        25         OUTLET    
LH13             0.01       0.05       1.7        2.5        25         OUTLET    
LH14             0.01       0.05       1.7        2.5        25         OUTLET    
LH15             0.01       0.05       1.7        2.5        25         OUTLET    
LH16             0.01       0.05       1.7        2.5        25         OUTLET    
LH17             0.01       0.05       1.7        2.5        25         OUTLET    
LH18             0.01       0.05       1.7        2.5        25         OUTLET    
LH19             0.01       0.05       1.7        2.5        25         OUTLET    
LH20             0.01       0.05       1.7        2.5        25         OUTLET    
LH21             0.01       0.05       1.7        2.5        25         OUTLET    
LH22             0.01       0.05       1.7        2.5        25         OUTLET    
LH23             0.01       0.05       1.7        2.5        25         OUTLET    
LH24             0.01       0.05       1.7        2.5        25         OUTLET    
LH25             0.01       0.05       1.7        2.5        25         OUTLET    
LH26             0.01       0.05       1.7        2.5        25         OUTLET    
LH27             0.01       0.05       1.7        2.5        25         OUTLET    
LH28             0.01       0.05       1.7        2.5        25         OUTLET    
LH29             0.01       0.05       1.7        2.5        25         OUTLET    
LH30             0.01       0.05       1.7        2.5        25         OUTLET    
LH31             0.01       0.05       1.7        2.5        25         OUTLET    
LH32             0.01       0.05       1.7        2.5        25         OUTLET    
LH33             0.01       0.05       1.7        2.5        25         OUTLET    
LH34             0.01       0.05       1.7        2.5        25         OUTLET    
LH35             0.01       0.05       1.7        2.5        25         OUTLET    
LH36             0.01       0.05       1.7        2.5        25         OUTLET    